/*--------------------------------*- C++ -*----------------------------------*\
  =========                 |
  \\      /  F ield         | OpenFOAM: The Open Source CFD Toolbox
   \\    /   O peration     | Website:  https://openfoam.org
    \\  /    A nd           | Version:  9
     \\/     M anipulation  |
\*---------------------------------------------------------------------------*/
FoamFile
{
    format      ascii;
    class       polyBoundaryMesh;
    location    "constant/polyMesh";
    object      boundary;
}
// * * * * * * * * * * * * * * * * * * * * * * * * * * * * * * * * * * * * * //

6
(
    window_extruded
    {
        type            patch;
        nFaces          2;
        startFace       14750;
    }
    fanAbove_extruded
    {
        type            wall;
        nFaces          7;
        startFace       14752;
    }
    fan_extruded
    {
        type            patch;
        nFaces          9;
        startFace       14759;
    }
    door_extruded
    {
        type            wall;
        nFaces          24;
        startFace       14768;
    }
    walls_extruded
    {
        type            wall;
        nFaces          224;
        startFace       14792;
    }
    defaultFaces
    {
        type            empty;
        nFaces          19844;
        startFace       15016;
    }
)

// ************************************************************************* //
