/*--------------------------------*- C++ -*----------------------------------*\
  =========                 |
  \\      /  F ield         | OpenFOAM: The Open Source CFD Toolbox
   \\    /   O peration     | Website:  https://openfoam.org
    \\  /    A nd           | Version:  9
     \\/     M anipulation  |
\*---------------------------------------------------------------------------*/
FoamFile
{
    format      ascii;
    class       polyBoundaryMesh;
    location    "constant/polyMesh";
    object      boundary;
}
// * * * * * * * * * * * * * * * * * * * * * * * * * * * * * * * * * * * * * //

7
(
    window_extruded
    {
        type            patch;
        nFaces          4;
        startFace       19305;
    }
    walls_extruded
    {
        type            wall;
        nFaces          326;
        startFace       19309;
    }
    fanOutlet_extruded
    {
        type            patch;
        nFaces          9;
        startFace       19635;
    }
    fanInlet_extruded
    {
        type            wall;
        nFaces          8;
        startFace       19644;
    }
    fanSides_extruded
    {
        type            wall;
        nFaces          84;
        startFace       19652;
    }
    outside_extruded
    {
        type            wall;
        nFaces          25;
        startFace       19736;
    }
    defaultFaces
    {
        type            empty;
        nFaces          26044;
        startFace       19761;
    }
)

// ************************************************************************* //
