/*--------------------------------*- C++ -*----------------------------------*\
  =========                 |
  \\      /  F ield         | OpenFOAM: The Open Source CFD Toolbox
   \\    /   O peration     | Website:  https://openfoam.org
    \\  /    A nd           | Version:  9
     \\/     M anipulation  |
\*---------------------------------------------------------------------------*/
FoamFile
{
    format      ascii;
    class       volScalarField;
    location    "0";
    object      k;
}
// * * * * * * * * * * * * * * * * * * * * * * * * * * * * * * * * * * * * * //

dimensions      [0 2 -2 0 0 0 0];

internalField   uniform 8e-2;

boundaryField
{
    walls_extruded
    {
        type            kqRWallFunction;
        value           $internalField;
    }

    fan_extruded
    {
        type            turbulentIntensityKineticEnergyInlet;
        intensity       0.14;
        value           $internalField;
    }

    window_extruded
    {
        type            inletOutlet;
        inletValue      $internalField;
    }

    door_extruded
    {
        type            inletOutlet;
        inletValue      $internalField;
    }

    defaultFaces
    {
        type            empty;
    }
}


// ************************************************************************* //
