/*--------------------------------*- C++ -*----------------------------------*\
  =========                 |
  \\      /  F ield         | OpenFOAM: The Open Source CFD Toolbox
   \\    /   O peration     | Website:  https://openfoam.org
    \\  /    A nd           | Version:  9
     \\/     M anipulation  |
\*---------------------------------------------------------------------------*/
FoamFile
{
    format      ascii;
    class       volScalarField;
    location    "0";
    object      p;
}
// * * * * * * * * * * * * * * * * * * * * * * * * * * * * * * * * * * * * * //

dimensions      [0 2 -2 0 0 0 0];

internalField   uniform 1e5;

boundaryField
{
    window_extruded
    {
        type            fixedValue;
        value           uniform 1e5;
    }

    fanAbove_extruded
    {
        type            zeroGradient;
    }

    fan_extruded
    {
        type            zeroGradient;
    }

    door_extruded
    {
        type            zeroGradient;
    }

    walls_extruded
    {
        type            zeroGradient;
    }

    defaultFaces
    {
        type            empty;
    }
}


// ************************************************************************* //
