/*--------------------------------*- C++ -*----------------------------------*\
  =========                 |
  \\      /  F ield         | OpenFOAM: The Open Source CFD Toolbox
   \\    /   O peration     | Website:  https://openfoam.org
    \\  /    A nd           | Version:  9
     \\/     M anipulation  |
\*---------------------------------------------------------------------------*/
FoamFile
{
    format      ascii;
    class       volVectorField;
    location    "0";
    object      U;
}
// * * * * * * * * * * * * * * * * * * * * * * * * * * * * * * * * * * * * * //

dimensions      [0 1 -1 0 0 0 0];

internalField   uniform (0 0 0);

boundaryField
{
    window_extruded
    {
        type            zeroGradient;
    }

    walls_extruded
    {
        type            noSlip;
    }

    fanOutlet_extruded
    {
        type            fixedValue;
        value           uniform (3.23 -1.17 0);
    }

    fanInlet_extruded
    {
        type            noSlip;
    }

    fanSides_extruded
    {
        type            noSlip;
    }

    outside_extruded
    {
        type            noSlip;
    }

    defaultFaces
    {
        type            empty;
    }
}


// ************************************************************************* //
